New Linecode.3P_OH_Code0 units=km nphases=3 Rmatrix=(1.1721 0.04939999999999996 0.04939999999999996 | 0.04939999999999996 1.1721 0.04939999999999996 | 0.04939999999999996 0.04939999999999996 1.1721 ) Xmatrix=(0.7993019999999998 0.41126899999999994 0.41126899999999994 | 0.41126899999999994 0.7993019999999998 0.41126899999999994 | 0.41126899999999994 0.41126899999999994 0.7993019999999998 ) normamps=155.470001

New Linecode.1P_OH_Code1 units=km nphases=1 Rmatrix=(0.58 ) Xmatrix=(0.00041799999999999997 ) normamps=155.470001

