
new loadshape.load interval=1 Npts=24 mult=(File='load_shape.csv')