new loadshape.fixed interval=1 Npts=24 mult=(File='fload_shape.csv')