new loadshape.fixed interval=1 Npts=8760 mult=(File='fload_shape_yearly.csv')